# PCG package for SEAWAT generated by Flopy 3.10.0
100 100 1 0
1e-06 0.001 0.98 0 0 3 1.0 
