# DIS package for SEAWAT generated by Flopy 3.10.0
        33       255       135        30         4         2
  0  0  0  0  0  0  0  0  0  0  0  0  0  0  0  0  0  0  0  0  0  0  0  0  0  0  0  0  0  0  0  0  0
         0       200                           -1 #delr
         0       200                           -1 #delc
         0       250                           -1 #model_top
         0       230                           -1 #botm layer 1
         0       210                           -1 #botm layer 2
         0       190                           -1 #botm layer 3
         0       170                           -1 #botm layer 4
         0       150                           -1 #botm layer 5
         0       130                           -1 #botm layer 6
         0       110                           -1 #botm layer 7
         0        90                           -1 #botm layer 8
         0        70                           -1 #botm layer 9
         0        50                           -1 #botm layer 10
         0        30                           -1 #botm layer 11
         0        10                           -1 #botm layer 12
         0       -10                           -1 #botm layer 13
         0       -30                           -1 #botm layer 14
         0       -50                           -1 #botm layer 15
         0       -70                           -1 #botm layer 16
         0       -90                           -1 #botm layer 17
         0      -110                           -1 #botm layer 18
         0      -130                           -1 #botm layer 19
         0      -150                           -1 #botm layer 20
         0      -170                           -1 #botm layer 21
         0      -190                           -1 #botm layer 22
         0      -210                           -1 #botm layer 23
         0      -230                           -1 #botm layer 24
         0      -250                           -1 #botm layer 25
         0      -270                           -1 #botm layer 26
         0      -290                           -1 #botm layer 27
         0      -310                           -1 #botm layer 28
         0      -330                           -1 #botm layer 29
         0      -350                           -1 #botm layer 30
         0      -370                           -1 #botm layer 31
         0      -390                           -1 #botm layer 32
         0      -410                           -1 #botm layer 33
    365.250000            12  1.000000  SS
    365.250000            12  1.000000  SS
    365.250000            12  1.000000  SS
    365.250000            12  1.000000  SS
    365.250000            12  1.000000  SS
    365.250000            12  1.000000  SS
    365.250000            12  1.000000  SS
    365.250000            12  1.000000  SS
    365.250000            12  1.000000  SS
    365.250000            12  1.000000  SS
    365.250000            12  1.000000  SS
    365.250000            12  1.000000  SS
    365.250000            12  1.000000  SS
    365.250000            12  1.000000  SS
    365.250000            12  1.000000  SS
    365.250000            12  1.000000  SS
    365.250000            12  1.000000  SS
    365.250000            12  1.000000  SS
    365.250000            12  1.000000  SS
    365.250000            12  1.000000  SS
    365.250000            12  1.000000  SS
    365.250000            12  1.000000  SS
    365.250000            12  1.000000  SS
    365.250000            12  1.000000  SS
    365.250000            12  1.000000  SS
    365.250000            12  1.000000  SS
    365.250000            12  1.000000  SS
    365.250000            12  1.000000  SS
    365.250000            12  1.000000  SS
    365.250000            12  1.000000  SS
